feeders/123Bus/ieee123_VLN_elem.Txt

NODE-GROUND VOLTAGES BY CIRCUIT ELEMENT

Power Delivery Elements

Bus      (node ref)  Phase    Magnitude, kV (pu)    Angle

ELEMENT = "Vsource.SOURCE"
150       (  1)    1           2.4018 (       1) /_    0.0
150       (  2)    2           2.4018 (       1) /_ -120.0
150       (  3)    3           2.4018 (       1) /_  120.0
------------
150       (  0)    0                0 (       0) /_    0.0
150       (  0)    0                0 (       0) /_    0.0
150       (  0)    0                0 (       0) /_    0.0

ELEMENT = "Transformer.REG1A"
150       (  1)    1           2.4018 (       1) /_    0.0
150       (  2)    2           2.4018 (       1) /_ -120.0
150       (  3)    3           2.4018 (       1) /_  120.0
150       (  0)    0                0 (       0) /_    0.0
------------
150R      (  4)    1           2.4618 (   1.025) /_    0.0
150R      (  5)    2           2.4618 (   1.025) /_ -120.0
150R      (  6)    3           2.4618 (   1.025) /_  120.0
150R      (  0)    0                0 (       0) /_    0.0

ELEMENT = "Line.L115"
149       (  7)    1           2.4618 (   1.025) /_    0.0
149       (  8)    2           2.4618 (   1.025) /_ -120.0
149       (  9)    3           2.4618 (   1.025) /_  120.0
------------
1         ( 10)    1           2.4393 (   1.016) /_   -0.6
1         ( 11)    2           2.4617 (   1.025) /_ -120.2
1         ( 12)    3           2.4439 (   1.018) /_  119.7

ELEMENT = "Line.L1"
1         ( 11)    2           2.4617 (   1.025) /_ -120.2
------------
2         ( 13)    2           2.4611 (   1.025) /_ -120.2

ELEMENT = "Line.L2"
1         ( 12)    3           2.4439 (   1.018) /_  119.7
------------
3         ( 14)    3             2.44 (   1.016) /_  119.6

ELEMENT = "Line.L3"
1         ( 10)    1           2.4393 (   1.016) /_   -0.6
1         ( 11)    2           2.4617 (   1.025) /_ -120.2
1         ( 12)    3           2.4439 (   1.018) /_  119.7
------------
7         ( 15)    1           2.4226 (   1.009) /_   -1.0
7         ( 16)    2           2.4618 (   1.025) /_ -120.4
7         ( 17)    3           2.4328 (   1.013) /_  119.5

ELEMENT = "Line.L4"
3         ( 14)    3             2.44 (   1.016) /_  119.6
------------
4         ( 18)    3           2.4387 (   1.015) /_  119.6

ELEMENT = "Line.L5"
3         ( 14)    3             2.44 (   1.016) /_  119.6
------------
5         ( 19)    3           2.4369 (   1.015) /_  119.6

ELEMENT = "Line.L6"
5         ( 19)    3           2.4369 (   1.015) /_  119.6
------------
6         ( 20)    3           2.4353 (   1.014) /_  119.6

ELEMENT = "Line.L7"
7         ( 15)    1           2.4226 (   1.009) /_   -1.0
7         ( 16)    2           2.4618 (   1.025) /_ -120.4
7         ( 17)    3           2.4328 (   1.013) /_  119.5
------------
8         ( 21)    1           2.4119 (   1.004) /_   -1.3
8         ( 22)    2           2.4617 (   1.025) /_ -120.5
8         ( 23)    3           2.4254 (    1.01) /_  119.3

ELEMENT = "Line.L8"
8         ( 22)    2           2.4617 (   1.025) /_ -120.5
------------
12        ( 24)    2            2.461 (   1.025) /_ -120.5

ELEMENT = "Line.L9"
8         ( 21)    1           2.4119 (   1.004) /_   -1.3
------------
9         ( 25)    1           2.4083 (   1.003) /_   -1.3

ELEMENT = "Line.L10"
8         ( 21)    1           2.4119 (   1.004) /_   -1.3
8         ( 22)    2           2.4617 (   1.025) /_ -120.5
8         ( 23)    3           2.4254 (    1.01) /_  119.3
------------
13        ( 26)    1           2.3983 (  0.9985) /_   -1.7
13        ( 27)    2           2.4607 (   1.025) /_ -120.7
13        ( 28)    3           2.4144 (   1.005) /_  119.1

ELEMENT = "Line.L11"
9R        ( 29)    1           2.4233 (   1.009) /_   -1.3
------------
14        ( 30)    1           2.4193 (   1.007) /_   -1.4

ELEMENT = "Line.L12"
13        ( 28)    3           2.4144 (   1.005) /_  119.1
------------
34        ( 31)    3            2.412 (   1.004) /_  119.1

ELEMENT = "Line.L13"
13        ( 26)    1           2.3983 (  0.9985) /_   -1.7
13        ( 27)    2           2.4607 (   1.025) /_ -120.7
13        ( 28)    3           2.4144 (   1.005) /_  119.1
------------
18        ( 32)    1           2.3895 (  0.9949) /_   -1.9
18        ( 33)    2           2.4636 (   1.026) /_ -120.7
18        ( 34)    3           2.4058 (   1.002) /_  119.1

ELEMENT = "Line.L14"
14        ( 30)    1           2.4193 (   1.007) /_   -1.4
------------
11        ( 35)    1           2.4177 (   1.007) /_   -1.4

ELEMENT = "Line.L15"
14        ( 30)    1           2.4193 (   1.007) /_   -1.4
------------
10        ( 36)    1           2.4185 (   1.007) /_   -1.4

ELEMENT = "Line.L16"
15        ( 37)    3            2.411 (   1.004) /_  119.1
------------
16        ( 38)    3           2.4087 (   1.003) /_  119.0

ELEMENT = "Line.L17"
15        ( 37)    3            2.411 (   1.004) /_  119.1
------------
17        ( 39)    3           2.4099 (   1.003) /_  119.0

ELEMENT = "Line.L18"
18        ( 32)    1           2.3895 (  0.9949) /_   -1.9
------------
19        ( 40)    1           2.3863 (  0.9936) /_   -2.0

ELEMENT = "Line.L19"
18        ( 32)    1           2.3895 (  0.9949) /_   -1.9
18        ( 33)    2           2.4636 (   1.026) /_ -120.7
18        ( 34)    3           2.4058 (   1.002) /_  119.1
------------
21        ( 41)    1           2.3881 (  0.9943) /_   -2.0
21        ( 42)    2           2.4637 (   1.026) /_ -120.7
21        ( 43)    3           2.4029 (       1) /_  119.1

ELEMENT = "Line.L20"
19        ( 40)    1           2.3863 (  0.9936) /_   -2.0
------------
20        ( 44)    1           2.3842 (  0.9927) /_   -2.0

ELEMENT = "Line.L21"
21        ( 42)    2           2.4637 (   1.026) /_ -120.7
------------
22        ( 45)    2           2.4603 (   1.024) /_ -120.7

ELEMENT = "Line.L22"
21        ( 41)    1           2.3881 (  0.9943) /_   -2.0
21        ( 42)    2           2.4637 (   1.026) /_ -120.7
21        ( 43)    3           2.4029 (       1) /_  119.1
------------
23        ( 46)    1           2.3872 (  0.9939) /_   -2.0
23        ( 47)    2           2.4646 (   1.026) /_ -120.7
23        ( 48)    3           2.4002 (  0.9993) /_  119.1

ELEMENT = "Line.L23"
23        ( 48)    3           2.4002 (  0.9993) /_  119.1
------------
24        ( 49)    3           2.3967 (  0.9979) /_  119.0

ELEMENT = "Line.L24"
23        ( 46)    1           2.3872 (  0.9939) /_   -2.0
23        ( 47)    2           2.4646 (   1.026) /_ -120.7
23        ( 48)    3           2.4002 (  0.9993) /_  119.1
------------
25        ( 50)    1           2.3856 (  0.9933) /_   -2.1
25        ( 51)    2           2.4657 (   1.027) /_ -120.7
25        ( 52)    3           2.3981 (  0.9985) /_  119.1

ELEMENT = "Line.L25"
25R       ( 53)    1           2.4005 (  0.9995) /_   -2.1
25R       ( 54)    3            2.413 (   1.005) /_  119.1
------------
26        ( 55)    1           2.3999 (  0.9992) /_   -2.1
26        ( 56)    3           2.4119 (   1.004) /_  119.0

ELEMENT = "Line.L26"
25        ( 50)    1           2.3856 (  0.9933) /_   -2.1
25        ( 51)    2           2.4657 (   1.027) /_ -120.7
25        ( 52)    3           2.3981 (  0.9985) /_  119.1
------------
28        ( 57)    1           2.3847 (  0.9929) /_   -2.1
28        ( 58)    2           2.4663 (   1.027) /_ -120.7
28        ( 59)    3           2.3972 (  0.9981) /_  119.1

ELEMENT = "Line.L27"
26        ( 55)    1           2.3999 (  0.9992) /_   -2.1
26        ( 56)    3           2.4119 (   1.004) /_  119.0
------------
27        ( 60)    1            2.399 (  0.9988) /_   -2.1
27        ( 61)    3           2.4118 (   1.004) /_  119.1

ELEMENT = "Line.L28"
26        ( 56)    3           2.4119 (   1.004) /_  119.0
------------
31        ( 62)    3           2.4104 (   1.004) /_  119.0

ELEMENT = "Line.L29"
27        ( 60)    1            2.399 (  0.9988) /_   -2.1
------------
33        ( 63)    1           2.3958 (  0.9975) /_   -2.2

ELEMENT = "Line.L30"
28        ( 57)    1           2.3847 (  0.9929) /_   -2.1
28        ( 58)    2           2.4663 (   1.027) /_ -120.7
28        ( 59)    3           2.3972 (  0.9981) /_  119.1
------------
29        ( 64)    1           2.3843 (  0.9927) /_   -2.1
29        ( 65)    2           2.4666 (   1.027) /_ -120.7
29        ( 66)    3           2.3961 (  0.9977) /_  119.0

ELEMENT = "Line.L31"
29        ( 64)    1           2.3843 (  0.9927) /_   -2.1
29        ( 65)    2           2.4666 (   1.027) /_ -120.7
29        ( 66)    3           2.3961 (  0.9977) /_  119.0
------------
30        ( 67)    1           2.3849 (   0.993) /_   -2.1
30        ( 68)    2           2.4665 (   1.027) /_ -120.7
30        ( 69)    3            2.395 (  0.9972) /_  119.0

ELEMENT = "Line.L32"
30        ( 67)    1           2.3849 (   0.993) /_   -2.1
30        ( 68)    2           2.4665 (   1.027) /_ -120.7
30        ( 69)    3            2.395 (  0.9972) /_  119.0
------------
250       ( 70)    1           2.3849 (   0.993) /_   -2.1
250       ( 71)    2           2.4665 (   1.027) /_ -120.7
250       ( 72)    3            2.395 (  0.9972) /_  119.0

ELEMENT = "Line.L33"
31        ( 62)    3           2.4104 (   1.004) /_  119.0
------------
32        ( 73)    3           2.4095 (   1.003) /_  119.0

ELEMENT = "Line.L34"
34        ( 31)    3            2.412 (   1.004) /_  119.1
------------
15        ( 37)    3            2.411 (   1.004) /_  119.1

ELEMENT = "Line.L35"
35        ( 74)    1                0 (       0) /_    0.0
35        ( 75)    2                0 (       0) /_    0.0
------------
36        ( 76)    1                0 (       0) /_    0.0
36        ( 77)    2                0 (       0) /_    0.0

ELEMENT = "Line.L36"
35        ( 74)    1                0 (       0) /_    0.0
35        ( 75)    2                0 (       0) /_    0.0
35        ( 78)    3                0 (       0) /_    0.0
------------
40        ( 79)    1                0 (       0) /_    0.0
40        ( 80)    2                0 (       0) /_    0.0
40        ( 81)    3                0 (       0) /_    0.0

ELEMENT = "Line.L37"
36        ( 76)    1                0 (       0) /_    0.0
------------
37        ( 82)    1                0 (       0) /_    0.0

ELEMENT = "Line.L38"
36        ( 77)    2                0 (       0) /_    0.0
------------
38        ( 83)    2                0 (       0) /_    0.0

ELEMENT = "Line.L39"
38        ( 83)    2                0 (       0) /_    0.0
------------
39        ( 84)    2                0 (       0) /_    0.0

ELEMENT = "Line.L40"
40        ( 81)    3                0 (       0) /_    0.0
------------
41        ( 85)    3                0 (       0) /_    0.0

ELEMENT = "Line.L41"
40        ( 79)    1                0 (       0) /_    0.0
40        ( 80)    2                0 (       0) /_    0.0
40        ( 81)    3                0 (       0) /_    0.0
------------
42        ( 86)    1                0 (       0) /_    0.0
42        ( 87)    2                0 (       0) /_    0.0
42        ( 88)    3                0 (       0) /_    0.0

ELEMENT = "Line.L42"
42        ( 87)    2                0 (       0) /_    0.0
------------
43        ( 89)    2                0 (       0) /_    0.0

ELEMENT = "Line.L43"
42        ( 86)    1                0 (       0) /_    0.0
42        ( 87)    2                0 (       0) /_    0.0
42        ( 88)    3                0 (       0) /_    0.0
------------
44        ( 90)    1                0 (       0) /_    0.0
44        ( 91)    2                0 (       0) /_    0.0
44        ( 92)    3                0 (       0) /_    0.0

ELEMENT = "Line.L44"
44        ( 90)    1                0 (       0) /_    0.0
------------
45        ( 93)    1                0 (       0) /_    0.0

ELEMENT = "Line.L45"
44        ( 90)    1                0 (       0) /_    0.0
44        ( 91)    2                0 (       0) /_    0.0
44        ( 92)    3                0 (       0) /_    0.0
------------
47        ( 94)    1                0 (       0) /_    0.0
47        ( 95)    2                0 (       0) /_    0.0
47        ( 96)    3                0 (       0) /_    0.0

ELEMENT = "Line.L46"
45        ( 93)    1                0 (       0) /_    0.0
------------
46        ( 97)    1                0 (       0) /_    0.0

ELEMENT = "Line.L47"
47        ( 94)    1                0 (       0) /_    0.0
47        ( 95)    2                0 (       0) /_    0.0
47        ( 96)    3                0 (       0) /_    0.0
------------
48        ( 98)    1                0 (       0) /_    0.0
48        ( 99)    2                0 (       0) /_    0.0
48        (100)    3                0 (       0) /_    0.0

ELEMENT = "Line.L48"
47        ( 94)    1                0 (       0) /_    0.0
47        ( 95)    2                0 (       0) /_    0.0
47        ( 96)    3                0 (       0) /_    0.0
------------
49        (101)    1                0 (       0) /_    0.0
49        (102)    2                0 (       0) /_    0.0
49        (103)    3                0 (       0) /_    0.0

ELEMENT = "Line.L49"
49        (101)    1                0 (       0) /_    0.0
49        (102)    2                0 (       0) /_    0.0
49        (103)    3                0 (       0) /_    0.0
------------
50        (104)    1                0 (       0) /_    0.0
50        (105)    2                0 (       0) /_    0.0
50        (106)    3                0 (       0) /_    0.0

ELEMENT = "Line.L50"
50        (104)    1                0 (       0) /_    0.0
50        (105)    2                0 (       0) /_    0.0
50        (106)    3                0 (       0) /_    0.0
------------
51        (107)    1                0 (       0) /_    0.0
51        (108)    2                0 (       0) /_    0.0
51        (109)    3                0 (       0) /_    0.0

ELEMENT = "Line.L51"
51        (107)    1                0 (       0) /_    0.0
51        (108)    2                0 (       0) /_    0.0
51        (109)    3                0 (       0) /_    0.0
------------
151       (110)    1                0 (       0) /_    0.0
151       (111)    2                0 (       0) /_    0.0
151       (112)    3                0 (       0) /_    0.0

ELEMENT = "Line.L52"
52        (113)    1           2.3838 (  0.9925) /_   -2.1
52        (114)    2           2.4579 (   1.023) /_ -120.9
52        (115)    3           2.4065 (   1.002) /_  118.8
------------
53        (116)    1           2.3772 (  0.9898) /_   -2.2
53        (117)    2           2.4561 (   1.023) /_ -121.1
53        (118)    3           2.4026 (       1) /_  118.7

ELEMENT = "Line.L53"
53        (116)    1           2.3772 (  0.9898) /_   -2.2
53        (117)    2           2.4561 (   1.023) /_ -121.1
53        (118)    3           2.4026 (       1) /_  118.7
------------
54        (119)    1           2.3735 (  0.9882) /_   -2.3
54        (120)    2           2.4548 (   1.022) /_ -121.1
54        (121)    3           2.4003 (  0.9994) /_  118.6

ELEMENT = "Line.L54"
54        (119)    1           2.3735 (  0.9882) /_   -2.3
54        (120)    2           2.4548 (   1.022) /_ -121.1
54        (121)    3           2.4003 (  0.9994) /_  118.6
------------
55        (122)    1            2.373 (   0.988) /_   -2.4
55        (123)    2           2.4546 (   1.022) /_ -121.1
55        (124)    3           2.4004 (  0.9994) /_  118.6

ELEMENT = "Line.L55"
54        (119)    1           2.3735 (  0.9882) /_   -2.3
54        (120)    2           2.4548 (   1.022) /_ -121.1
54        (121)    3           2.4003 (  0.9994) /_  118.6
------------
57        (125)    1           2.3659 (  0.9851) /_   -2.7
57        (126)    2           2.4481 (   1.019) /_ -121.3
57        (127)    3            2.394 (  0.9968) /_  118.4

ELEMENT = "Line.L56"
55        (122)    1            2.373 (   0.988) /_   -2.4
55        (123)    2           2.4546 (   1.022) /_ -121.1
55        (124)    3           2.4004 (  0.9994) /_  118.6
------------
56        (128)    1           2.3729 (   0.988) /_   -2.3
56        (129)    2           2.4542 (   1.022) /_ -121.1
56        (130)    3           2.4006 (  0.9995) /_  118.6

ELEMENT = "Line.L57"
57        (126)    2           2.4481 (   1.019) /_ -121.3
------------
58        (131)    2           2.4466 (   1.019) /_ -121.3

ELEMENT = "Line.L58"
57        (125)    1           2.3659 (  0.9851) /_   -2.7
57        (126)    2           2.4481 (   1.019) /_ -121.3
57        (127)    3            2.394 (  0.9968) /_  118.4
------------
60        (132)    1           2.3501 (  0.9785) /_   -3.3
60        (133)    2           2.4364 (   1.014) /_ -121.7
60        (134)    3           2.3793 (  0.9907) /_  117.9

ELEMENT = "Line.L59"
58        (131)    2           2.4466 (   1.019) /_ -121.3
------------
59        (135)    2           2.4458 (   1.018) /_ -121.4

ELEMENT = "Line.L60"
60        (132)    1           2.3501 (  0.9785) /_   -3.3
60        (133)    2           2.4364 (   1.014) /_ -121.7
60        (134)    3           2.3793 (  0.9907) /_  117.9
------------
61        (136)    1           2.3501 (  0.9785) /_   -3.3
61        (137)    2           2.4364 (   1.014) /_ -121.7
61        (138)    3           2.3793 (  0.9907) /_  117.9

ELEMENT = "Line.L61"
60        (132)    1           2.3501 (  0.9785) /_   -3.3
60        (133)    2           2.4364 (   1.014) /_ -121.7
60        (134)    3           2.3793 (  0.9907) /_  117.9
------------
62        (139)    1           2.3483 (  0.9777) /_   -3.3
62        (140)    2           2.4336 (   1.013) /_ -121.7
62        (141)    3           2.3744 (  0.9886) /_  117.9

ELEMENT = "Line.L62"
62        (139)    1           2.3483 (  0.9777) /_   -3.3
62        (140)    2           2.4336 (   1.013) /_ -121.7
62        (141)    3           2.3744 (  0.9886) /_  117.9
------------
63        (142)    1           2.3468 (  0.9771) /_   -3.3
63        (143)    2           2.4316 (   1.012) /_ -121.7
63        (144)    3            2.372 (  0.9876) /_  117.9

ELEMENT = "Line.L63"
63        (142)    1           2.3468 (  0.9771) /_   -3.3
63        (143)    2           2.4316 (   1.012) /_ -121.7
63        (144)    3            2.372 (  0.9876) /_  117.9
------------
64        (145)    1           2.3461 (  0.9768) /_   -3.3
64        (146)    2           2.4271 (   1.011) /_ -121.7
64        (147)    3           2.3667 (  0.9854) /_  117.9

ELEMENT = "Line.L64"
64        (145)    1           2.3461 (  0.9768) /_   -3.3
64        (146)    2           2.4271 (   1.011) /_ -121.7
64        (147)    3           2.3667 (  0.9854) /_  117.9
------------
65        (148)    1           2.3444 (  0.9761) /_   -3.3
65        (149)    2           2.4263 (    1.01) /_ -121.6
65        (150)    3           2.3595 (  0.9824) /_  117.9

ELEMENT = "Line.L65"
65        (148)    1           2.3444 (  0.9761) /_   -3.3
65        (149)    2           2.4263 (    1.01) /_ -121.6
65        (150)    3           2.3595 (  0.9824) /_  117.9
------------
66        (151)    1            2.345 (  0.9764) /_   -3.3
66        (152)    2           2.4269 (    1.01) /_ -121.6
66        (153)    3           2.3558 (  0.9809) /_  117.9

ELEMENT = "Line.L66"
67        (154)    1           2.4925 (   1.038) /_   -3.6
------------
68        (155)    1           2.4888 (   1.036) /_   -3.6

ELEMENT = "Line.L67"
67        (154)    1           2.4925 (   1.038) /_   -3.6
67        (156)    2           2.5105 (   1.045) /_ -121.9
67        (157)    3           2.4782 (   1.032) /_  117.8
------------
72        (158)    1           2.4935 (   1.038) /_   -3.7
72        (159)    2           2.5085 (   1.044) /_ -122.0
72        (160)    3           2.4776 (   1.032) /_  117.7

ELEMENT = "Line.L68"
67        (154)    1           2.4925 (   1.038) /_   -3.6
67        (156)    2           2.5105 (   1.045) /_ -121.9
67        (157)    3           2.4782 (   1.032) /_  117.8
------------
97        (161)    1           2.4901 (   1.037) /_   -3.6
97        (162)    2           2.5093 (   1.045) /_ -121.9
97        (163)    3           2.4764 (   1.031) /_  117.8

ELEMENT = "Line.L69"
68        (155)    1           2.4888 (   1.036) /_   -3.6
------------
69        (164)    1           2.4846 (   1.034) /_   -3.7

ELEMENT = "Line.L70"
69        (164)    1           2.4846 (   1.034) /_   -3.7
------------
70        (165)    1           2.4816 (   1.033) /_   -3.7

ELEMENT = "Line.L71"
70        (165)    1           2.4816 (   1.033) /_   -3.7
------------
71        (166)    1             2.48 (   1.033) /_   -3.7

ELEMENT = "Line.L72"
72        (160)    3           2.4776 (   1.032) /_  117.7
------------
73        (167)    3           2.4725 (   1.029) /_  117.6

ELEMENT = "Line.L73"
72        (158)    1           2.4935 (   1.038) /_   -3.7
72        (159)    2           2.5085 (   1.044) /_ -122.0
72        (160)    3           2.4776 (   1.032) /_  117.7
------------
76        (168)    1           2.4932 (   1.038) /_   -3.8
76        (169)    2           2.5073 (   1.044) /_ -122.1
76        (170)    3           2.4791 (   1.032) /_  117.6

ELEMENT = "Line.L74"
73        (167)    3           2.4725 (   1.029) /_  117.6
------------
74        (171)    3            2.468 (   1.028) /_  117.6

ELEMENT = "Line.L75"
74        (171)    3            2.468 (   1.028) /_  117.6
------------
75        (172)    3           2.4656 (   1.027) /_  117.6

ELEMENT = "Line.L76"
76        (168)    1           2.4932 (   1.038) /_   -3.8
76        (169)    2           2.5073 (   1.044) /_ -122.1
76        (170)    3           2.4791 (   1.032) /_  117.6
------------
77        (173)    1            2.496 (   1.039) /_   -3.8
77        (174)    2           2.5102 (   1.045) /_ -122.2
77        (175)    3           2.4812 (   1.033) /_  117.6

ELEMENT = "Line.L77"
76        (168)    1           2.4932 (   1.038) /_   -3.8
76        (169)    2           2.5073 (   1.044) /_ -122.1
76        (170)    3           2.4791 (   1.032) /_  117.6
------------
86        (176)    1           2.4911 (   1.037) /_   -3.8
86        (177)    2           2.5031 (   1.042) /_ -122.3
86        (178)    3           2.4825 (   1.034) /_  117.6

ELEMENT = "Line.L78"
77        (173)    1            2.496 (   1.039) /_   -3.8
77        (174)    2           2.5102 (   1.045) /_ -122.2
77        (175)    3           2.4812 (   1.033) /_  117.6
------------
78        (179)    1           2.4968 (    1.04) /_   -3.8
78        (180)    2           2.5112 (   1.046) /_ -122.2
78        (181)    3           2.4815 (   1.033) /_  117.5

ELEMENT = "Line.L79"
78        (179)    1           2.4968 (    1.04) /_   -3.8
78        (180)    2           2.5112 (   1.046) /_ -122.2
78        (181)    3           2.4815 (   1.033) /_  117.5
------------
79        (182)    1            2.496 (   1.039) /_   -3.9
79        (183)    2           2.5115 (   1.046) /_ -122.2
79        (184)    3           2.4814 (   1.033) /_  117.5

ELEMENT = "Line.L80"
78        (179)    1           2.4968 (    1.04) /_   -3.8
78        (180)    2           2.5112 (   1.046) /_ -122.2
78        (181)    3           2.4815 (   1.033) /_  117.5
------------
80        (185)    1           2.5018 (   1.042) /_   -3.9
80        (186)    2           2.5154 (   1.047) /_ -122.3
80        (187)    3           2.4836 (   1.034) /_  117.4

ELEMENT = "Line.L81"
80        (185)    1           2.5018 (   1.042) /_   -3.9
80        (186)    2           2.5154 (   1.047) /_ -122.3
80        (187)    3           2.4836 (   1.034) /_  117.4
------------
81        (188)    1           2.5037 (   1.042) /_   -3.9
81        (189)    2           2.5174 (   1.048) /_ -122.3
81        (190)    3           2.4841 (   1.034) /_  117.4

ELEMENT = "Line.L82"
81        (188)    1           2.5037 (   1.042) /_   -3.9
81        (189)    2           2.5174 (   1.048) /_ -122.3
81        (190)    3           2.4841 (   1.034) /_  117.4
------------
82        (191)    1           2.5057 (   1.043) /_   -4.0
82        (192)    2           2.5205 (   1.049) /_ -122.3
82        (193)    3           2.4859 (   1.035) /_  117.4

ELEMENT = "Line.L83"
81        (190)    3           2.4841 (   1.034) /_  117.4
------------
84        (194)    3           2.4779 (   1.032) /_  117.3

ELEMENT = "Line.L84"
82        (191)    1           2.5057 (   1.043) /_   -4.0
82        (192)    2           2.5205 (   1.049) /_ -122.3
82        (193)    3           2.4859 (   1.035) /_  117.4
------------
83        (195)    1           2.5086 (   1.044) /_   -4.0
83        (196)    2           2.5232 (   1.051) /_ -122.3
83        (197)    3           2.4879 (   1.036) /_  117.3

ELEMENT = "Line.L85"
84        (194)    3           2.4779 (   1.032) /_  117.3
------------
85        (198)    3           2.4749 (    1.03) /_  117.3

ELEMENT = "Line.L86"
86        (176)    1           2.4911 (   1.037) /_   -3.8
86        (177)    2           2.5031 (   1.042) /_ -122.3
86        (178)    3           2.4825 (   1.034) /_  117.6
------------
87        (199)    1           2.4899 (   1.037) /_   -3.8
87        (200)    2           2.5013 (   1.041) /_ -122.4
87        (201)    3           2.4838 (   1.034) /_  117.6

ELEMENT = "Line.L87"
87        (199)    1           2.4899 (   1.037) /_   -3.8
------------
88        (202)    1           2.4898 (   1.037) /_   -3.8

ELEMENT = "Line.L88"
87        (199)    1           2.4899 (   1.037) /_   -3.8
87        (200)    2           2.5013 (   1.041) /_ -122.4
87        (201)    3           2.4838 (   1.034) /_  117.6
------------
89        (203)    1           2.4889 (   1.036) /_   -3.8
89        (204)    2           2.5007 (   1.041) /_ -122.4
89        (205)    3           2.4847 (   1.035) /_  117.6

ELEMENT = "Line.L89"
89        (204)    2           2.5007 (   1.041) /_ -122.4
------------
90        (206)    2           2.5005 (   1.041) /_ -122.4

ELEMENT = "Line.L90"
89        (203)    1           2.4889 (   1.036) /_   -3.8
89        (204)    2           2.5007 (   1.041) /_ -122.4
89        (205)    3           2.4847 (   1.035) /_  117.6
------------
91        (207)    1           2.4884 (   1.036) /_   -3.8
91        (208)    2           2.4999 (   1.041) /_ -122.4
91        (209)    3           2.4852 (   1.035) /_  117.6

ELEMENT = "Line.L91"
91        (209)    3           2.4852 (   1.035) /_  117.6
------------
92        (210)    3            2.485 (   1.035) /_  117.5

ELEMENT = "Line.L92"
91        (207)    1           2.4884 (   1.036) /_   -3.8
91        (208)    2           2.4999 (   1.041) /_ -122.4
91        (209)    3           2.4852 (   1.035) /_  117.6
------------
93        (211)    1           2.4876 (   1.036) /_   -3.8
93        (212)    2           2.4995 (   1.041) /_ -122.4
93        (213)    3           2.4854 (   1.035) /_  117.6

ELEMENT = "Line.L93"
93        (211)    1           2.4876 (   1.036) /_   -3.8
------------
94        (214)    1            2.486 (   1.035) /_   -3.8

ELEMENT = "Line.L94"
93        (211)    1           2.4876 (   1.036) /_   -3.8
93        (212)    2           2.4995 (   1.041) /_ -122.4
93        (213)    3           2.4854 (   1.035) /_  117.6
------------
95        (215)    1           2.4875 (   1.036) /_   -3.8
95        (216)    2           2.4986 (    1.04) /_ -122.4
95        (217)    3           2.4859 (   1.035) /_  117.6

ELEMENT = "Line.L95"
95        (216)    2           2.4986 (    1.04) /_ -122.4
------------
96        (218)    2            2.498 (    1.04) /_ -122.4

ELEMENT = "Line.L96"
97        (161)    1           2.4901 (   1.037) /_   -3.6
97        (162)    2           2.5093 (   1.045) /_ -121.9
97        (163)    3           2.4764 (   1.031) /_  117.8
------------
98        (219)    1           2.4896 (   1.037) /_   -3.7
98        (220)    2           2.5087 (   1.045) /_ -121.9
98        (221)    3           2.4759 (   1.031) /_  117.8

ELEMENT = "Line.L97"
98        (219)    1           2.4896 (   1.037) /_   -3.7
98        (220)    2           2.5087 (   1.045) /_ -121.9
98        (221)    3           2.4759 (   1.031) /_  117.8
------------
99        (222)    1           2.4903 (   1.037) /_   -3.6
99        (223)    2           2.5067 (   1.044) /_ -121.9
99        (224)    3           2.4751 (   1.031) /_  117.7

ELEMENT = "Line.L98"
99        (222)    1           2.4903 (   1.037) /_   -3.6
99        (223)    2           2.5067 (   1.044) /_ -121.9
99        (224)    3           2.4751 (   1.031) /_  117.7
------------
100       (225)    1           2.4908 (   1.037) /_   -3.7
100       (226)    2           2.5066 (   1.044) /_ -121.9
100       (227)    3           2.4741 (    1.03) /_  117.7

ELEMENT = "Line.L99"
100       (225)    1           2.4908 (   1.037) /_   -3.7
100       (226)    2           2.5066 (   1.044) /_ -121.9
100       (227)    3           2.4741 (    1.03) /_  117.7
------------
450       (228)    1           2.4908 (   1.037) /_   -3.7
450       (229)    2           2.5066 (   1.044) /_ -121.9
450       (230)    3           2.4741 (    1.03) /_  117.7

ELEMENT = "Line.L118"
197       (231)    1           2.4901 (   1.037) /_   -3.6
197       (232)    2           2.5093 (   1.045) /_ -121.9
197       (233)    3           2.4764 (   1.031) /_  117.8
------------
101       (234)    1           2.4881 (   1.036) /_   -3.7
101       (235)    2           2.5087 (   1.045) /_ -121.9
101       (236)    3           2.4751 (   1.031) /_  117.8

ELEMENT = "Line.L100"
101       (236)    3           2.4751 (   1.031) /_  117.8
------------
102       (237)    3           2.4716 (   1.029) /_  117.7

ELEMENT = "Line.L101"
101       (234)    1           2.4881 (   1.036) /_   -3.7
101       (235)    2           2.5087 (   1.045) /_ -121.9
101       (236)    3           2.4751 (   1.031) /_  117.8
------------
105       (238)    1           2.4849 (   1.035) /_   -3.7
105       (239)    2           2.5083 (   1.044) /_ -122.0
105       (240)    3           2.4758 (   1.031) /_  117.8

ELEMENT = "Line.L102"
102       (237)    3           2.4716 (   1.029) /_  117.7
------------
103       (241)    3           2.4676 (   1.027) /_  117.7

ELEMENT = "Line.L103"
103       (241)    3           2.4676 (   1.027) /_  117.7
------------
104       (242)    3           2.4633 (   1.026) /_  117.7

ELEMENT = "Line.L104"
105       (239)    2           2.5083 (   1.044) /_ -122.0
------------
106       (243)    2           2.5056 (   1.043) /_ -122.0

ELEMENT = "Line.L105"
105       (238)    1           2.4849 (   1.035) /_   -3.7
105       (239)    2           2.5083 (   1.044) /_ -122.0
105       (240)    3           2.4758 (   1.031) /_  117.8
------------
108       (244)    1           2.4814 (   1.033) /_   -3.8
108       (245)    2           2.5099 (   1.045) /_ -122.0
108       (246)    3           2.4754 (   1.031) /_  117.8

ELEMENT = "Line.L106"
106       (243)    2           2.5056 (   1.043) /_ -122.0
------------
107       (247)    2           2.5021 (   1.042) /_ -122.0

ELEMENT = "Line.L107"
108       (244)    1           2.4814 (   1.033) /_   -3.8
------------
109       (248)    1           2.4715 (   1.029) /_   -3.9

ELEMENT = "Line.L108"
108       (244)    1           2.4814 (   1.033) /_   -3.8
108       (245)    2           2.5099 (   1.045) /_ -122.0
108       (246)    3           2.4754 (   1.031) /_  117.8
------------
300       (249)    1           2.4814 (   1.033) /_   -3.8
300       (250)    2           2.5099 (   1.045) /_ -122.0
300       (251)    3           2.4754 (   1.031) /_  117.8

ELEMENT = "Line.L109"
109       (248)    1           2.4715 (   1.029) /_   -3.9
------------
110       (252)    1           2.4668 (   1.027) /_   -3.9

ELEMENT = "Line.L110"
110       (252)    1           2.4668 (   1.027) /_   -3.9
------------
111       (253)    1            2.465 (   1.026) /_   -3.9

ELEMENT = "Line.L111"
110       (252)    1           2.4668 (   1.027) /_   -3.9
------------
112       (254)    1           2.4652 (   1.026) /_   -3.9

ELEMENT = "Line.L112"
112       (254)    1           2.4652 (   1.026) /_   -3.9
------------
113       (255)    1           2.4602 (   1.024) /_   -4.0

ELEMENT = "Line.L113"
113       (255)    1           2.4602 (   1.024) /_   -4.0
------------
114       (256)    1           2.4592 (   1.024) /_   -4.0


ELEMENT = "Line.L116"
152       (257)    1           2.3983 (  0.9985) /_   -1.7
152       (258)    2           2.4607 (   1.025) /_ -120.7
152       (259)    3           2.4144 (   1.005) /_  119.1
------------
52        (113)    1           2.3838 (  0.9925) /_   -2.1
52        (114)    2           2.4579 (   1.023) /_ -120.9
52        (115)    3           2.4065 (   1.002) /_  118.8

ELEMENT = "Line.L117"
160R      (260)    1            2.497 (    1.04) /_   -3.4
160R      (261)    2           2.5125 (   1.046) /_ -121.7
160R      (262)    3           2.4834 (   1.034) /_  117.9
------------
67        (154)    1           2.4925 (   1.038) /_   -3.6
67        (156)    2           2.5105 (   1.045) /_ -121.9
67        (157)    3           2.4782 (   1.032) /_  117.8

ELEMENT = "Line.SW1"
150R      (  4)    1           2.4618 (   1.025) /_    0.0
150R      (  5)    2           2.4618 (   1.025) /_ -120.0
150R      (  6)    3           2.4618 (   1.025) /_  120.0
------------
149       (  7)    1           2.4618 (   1.025) /_    0.0
149       (  8)    2           2.4618 (   1.025) /_ -120.0
149       (  9)    3           2.4618 (   1.025) /_  120.0

ELEMENT = "Line.SW2"
13        ( 26)    1           2.3983 (  0.9985) /_   -1.7
13        ( 27)    2           2.4607 (   1.025) /_ -120.7
13        ( 28)    3           2.4144 (   1.005) /_  119.1
------------
152       (257)    1           2.3983 (  0.9985) /_   -1.7
152       (258)    2           2.4607 (   1.025) /_ -120.7
152       (259)    3           2.4144 (   1.005) /_  119.1

ELEMENT = "Line.SW3"
18        ( 32)    1           2.3895 (  0.9949) /_   -1.9
18        ( 33)    2           2.4636 (   1.026) /_ -120.7
18        ( 34)    3           2.4058 (   1.002) /_  119.1
------------
135       (263)    1           2.3895 (  0.9949) /_   -1.9
135       (264)    2           2.4636 (   1.026) /_ -120.7
135       (265)    3           2.4058 (   1.002) /_  119.1

ELEMENT = "Line.SW4"
60        (132)    1           2.3501 (  0.9785) /_   -3.3
60        (133)    2           2.4364 (   1.014) /_ -121.7
60        (134)    3           2.3793 (  0.9907) /_  117.9
------------
160       (266)    1           2.3501 (  0.9785) /_   -3.3
160       (267)    2           2.4364 (   1.014) /_ -121.7
160       (268)    3           2.3793 (  0.9907) /_  117.9

ELEMENT = "Line.SW5"
97        (161)    1           2.4901 (   1.037) /_   -3.6
97        (162)    2           2.5093 (   1.045) /_ -121.9
97        (163)    3           2.4764 (   1.031) /_  117.8
------------
197       (231)    1           2.4901 (   1.037) /_   -3.6
197       (232)    2           2.5093 (   1.045) /_ -121.9
197       (233)    3           2.4764 (   1.031) /_  117.8

ELEMENT = "Line.SW6"
61        (136)    1           2.3501 (  0.9785) /_   -3.3
61        (137)    2           2.4364 (   1.014) /_ -121.7
61        (138)    3           2.3793 (  0.9907) /_  117.9
------------
61S       (269)    1           2.3501 (  0.9785) /_   -3.3
61S       (270)    2           2.4364 (   1.014) /_ -121.7
61S       (271)    3           2.3793 (  0.9907) /_  117.9

ELEMENT = "Line.SW7"
151       (110)    1                0 (       0) /_    0.0
151       (111)    2                0 (       0) /_    0.0
151       (112)    3                0 (       0) /_    0.0
------------
300_OPEN  (272)    1                0 (       0) /_    0.0
300_OPEN  (273)    2                0 (       0) /_    0.0
300_OPEN  (274)    3                0 (       0) /_    0.0

ELEMENT = "Line.SW8"
54        (119)    1           2.3735 (  0.9882) /_   -2.3
------------
94_OPEN   (275)    1           2.3735 (  0.9882) /_   -2.3

ELEMENT = "Transformer.XFM1"
61S       (269)    1           2.3501 (  0.9785) /_   -3.3
61S       (270)    2           2.4364 (   1.014) /_ -121.7
61S       (271)    3           2.3793 (  0.9907) /_  117.9
61S       (  0)    0                0 (       0) /_    0.0
------------
610       (276)    1          0.27288 (  0.9847) /_   -2.5
610       (277)    2           0.2766 (  0.9981) /_ -121.8
610       (278)    3          0.27731 (   1.001) /_  117.2
610       (  0)    0                0 (       0) /_    0.0

ELEMENT = "Capacitor.C83"
83        (195)    1           2.5086 (   1.044) /_   -4.0
83        (196)    2           2.5232 (   1.051) /_ -122.3
83        (197)    3           2.4879 (   1.036) /_  117.3
------------
83        (  0)    0                0 (       0) /_    0.0
83        (  0)    0                0 (       0) /_    0.0
83        (  0)    0                0 (       0) /_    0.0

ELEMENT = "Capacitor.C88A"
88        (202)    1           2.4898 (   1.037) /_   -3.8
------------
88        (  0)    0                0 (       0) /_    0.0

ELEMENT = "Capacitor.C90B"
90        (206)    2           2.5005 (   1.041) /_ -122.4
------------
90        (  0)    0                0 (       0) /_    0.0

ELEMENT = "Capacitor.C92C"
92        (210)    3            2.485 (   1.035) /_  117.5
------------
92        (  0)    0                0 (       0) /_    0.0

ELEMENT = "Transformer.REG2A"
9         ( 25)    1           2.4083 (   1.003) /_   -1.3
9         (  0)    0                0 (       0) /_    0.0
------------
9R        ( 29)    1           2.4233 (   1.009) /_   -1.3
9R        (  0)    0                0 (       0) /_    0.0

ELEMENT = "Transformer.REG3A"
25        ( 50)    1           2.3856 (  0.9933) /_   -2.1
25        (  0)    0                0 (       0) /_    0.0
------------
25R       ( 53)    1           2.4005 (  0.9995) /_   -2.1
25R       (  0)    0                0 (       0) /_    0.0

ELEMENT = "Transformer.REG4A"
160       (266)    1           2.3501 (  0.9785) /_   -3.3
160       (  0)    0                0 (       0) /_    0.0
------------
160R      (260)    1            2.497 (    1.04) /_   -3.4
160R      (  0)    0                0 (       0) /_    0.0

ELEMENT = "Transformer.REG3C"
25        ( 52)    3           2.3981 (  0.9985) /_  119.1
25        (  0)    0                0 (       0) /_    0.0
------------
25R       ( 54)    3            2.413 (   1.005) /_  119.1
25R       (  0)    0                0 (       0) /_    0.0

ELEMENT = "Transformer.REG4B"
160       (267)    2           2.4364 (   1.014) /_ -121.7
160       (  0)    0                0 (       0) /_    0.0
------------
160R      (261)    2           2.5125 (   1.046) /_ -121.7
160R      (  0)    0                0 (       0) /_    0.0

ELEMENT = "Transformer.REG4C"
160       (268)    3           2.3793 (  0.9907) /_  117.9
160       (  0)    0                0 (       0) /_    0.0
------------
160R      (262)    3           2.4834 (   1.034) /_  117.9
160R      (  0)    0                0 (       0) /_    0.0

ELEMENT = "Line.LOOP"
BUS2      (279)    1           2.4908 (   1.037) /_   -3.7
BUS2      (280)    2           2.5066 (   1.044) /_ -121.9
BUS2      (281)    3           2.4741 (    1.03) /_  117.7
------------
450       (228)    1           2.4908 (   1.037) /_   -3.7
450       (229)    2           2.5066 (   1.044) /_ -121.9
450       (230)    3           2.4741 (    1.03) /_  117.7

= = = = = = = = = = = = = = = = = = =  = = = = = = = = = = =  = =

Power Conversion Elements

Bus      (node ref)  Phase    Magnitude, kV (pu)    Angle

ELEMENT = "Load.S1A"
1         ( 10)    1           2.4393 (   1.016) /_   -0.6
1         (  0)    0                0 (       0) /_    0.0

ELEMENT = "Load.S2B"
2         ( 13)    2           2.4611 (   1.025) /_ -120.2
2         (  0)    0                0 (       0) /_    0.0

ELEMENT = "Load.S4C"
4         ( 18)    3           2.4387 (   1.015) /_  119.6
4         (  0)    0                0 (       0) /_    0.0

ELEMENT = "Load.S5C"
5         ( 19)    3           2.4369 (   1.015) /_  119.6
5         (  0)    0                0 (       0) /_    0.0

ELEMENT = "Load.S6C"
6         ( 20)    3           2.4353 (   1.014) /_  119.6
6         (  0)    0                0 (       0) /_    0.0

ELEMENT = "Load.S7A"
7         ( 15)    1           2.4226 (   1.009) /_   -1.0
7         (  0)    0                0 (       0) /_    0.0

ELEMENT = "Load.S9A"
9         ( 25)    1           2.4083 (   1.003) /_   -1.3
9         (  0)    0                0 (       0) /_    0.0

ELEMENT = "Load.S10A"
10        ( 36)    1           2.4185 (   1.007) /_   -1.4
10        (  0)    0                0 (       0) /_    0.0

ELEMENT = "Load.S11A"
11        ( 35)    1           2.4177 (   1.007) /_   -1.4
11        (  0)    0                0 (       0) /_    0.0

ELEMENT = "Load.S12B"
12        ( 24)    2            2.461 (   1.025) /_ -120.5
12        (  0)    0                0 (       0) /_    0.0

ELEMENT = "Load.S16C"
16        ( 38)    3           2.4087 (   1.003) /_  119.0
16        (  0)    0                0 (       0) /_    0.0

ELEMENT = "Load.S17C"
17        ( 39)    3           2.4099 (   1.003) /_  119.0
17        (  0)    0                0 (       0) /_    0.0

ELEMENT = "Load.S19A"
19        ( 40)    1           2.3863 (  0.9936) /_   -2.0
19        (  0)    0                0 (       0) /_    0.0

ELEMENT = "Load.S20A"
20        ( 44)    1           2.3842 (  0.9927) /_   -2.0
20        (  0)    0                0 (       0) /_    0.0

ELEMENT = "Load.S22B"
22        ( 45)    2           2.4603 (   1.024) /_ -120.7
22        (  0)    0                0 (       0) /_    0.0

ELEMENT = "Load.S24C"
24        ( 49)    3           2.3967 (  0.9979) /_  119.0
24        (  0)    0                0 (       0) /_    0.0

ELEMENT = "Load.S28A"
28        ( 57)    1           2.3847 (  0.9929) /_   -2.1
28        (  0)    0                0 (       0) /_    0.0

ELEMENT = "Load.S29A"
29        ( 64)    1           2.3843 (  0.9927) /_   -2.1
29        (  0)    0                0 (       0) /_    0.0

ELEMENT = "Load.S30C"
30        ( 69)    3            2.395 (  0.9972) /_  119.0
30        (  0)    0                0 (       0) /_    0.0

ELEMENT = "Load.S31C"
31        ( 62)    3           2.4104 (   1.004) /_  119.0
31        (  0)    0                0 (       0) /_    0.0

ELEMENT = "Load.S32C"
32        ( 73)    3           2.4095 (   1.003) /_  119.0
32        (  0)    0                0 (       0) /_    0.0

ELEMENT = "Load.S33A"
33        ( 63)    1           2.3958 (  0.9975) /_   -2.2
33        (  0)    0                0 (       0) /_    0.0

ELEMENT = "Load.S34C"
34        ( 31)    3            2.412 (   1.004) /_  119.1
34        (  0)    0                0 (       0) /_    0.0

ELEMENT = "Load.S35A"
35        ( 74)    1                0 (       0) /_    0.0
35        ( 75)    2                0 (       0) /_    0.0

ELEMENT = "Load.S37A"
37        ( 82)    1                0 (       0) /_    0.0
37        (  0)    0                0 (       0) /_    0.0

ELEMENT = "Load.S38B"
38        ( 83)    2                0 (       0) /_    0.0
38        (  0)    0                0 (       0) /_    0.0

ELEMENT = "Load.S39B"
39        ( 84)    2                0 (       0) /_    0.0
39        (  0)    0                0 (       0) /_    0.0

ELEMENT = "Load.S41C"
41        ( 85)    3                0 (       0) /_    0.0
41        (  0)    0                0 (       0) /_    0.0

ELEMENT = "Load.S42A"
42        ( 86)    1                0 (       0) /_    0.0
42        (  0)    0                0 (       0) /_    0.0

ELEMENT = "Load.S43B"
43        ( 89)    2                0 (       0) /_    0.0
43        (  0)    0                0 (       0) /_    0.0

ELEMENT = "Load.S45A"
45        ( 93)    1                0 (       0) /_    0.0
45        (  0)    0                0 (       0) /_    0.0

ELEMENT = "Load.S46A"
46        ( 97)    1                0 (       0) /_    0.0
46        (  0)    0                0 (       0) /_    0.0

ELEMENT = "Load.S47"
47        ( 94)    1                0 (       0) /_    0.0
47        ( 95)    2                0 (       0) /_    0.0
47        ( 96)    3                0 (       0) /_    0.0
47        (  0)    0                0 (       0) /_    0.0

ELEMENT = "Load.S48"
48        ( 98)    1                0 (       0) /_    0.0
48        ( 99)    2                0 (       0) /_    0.0
48        (100)    3                0 (       0) /_    0.0
48        (  0)    0                0 (       0) /_    0.0

ELEMENT = "Load.S49A"
49        (101)    1                0 (       0) /_    0.0
49        (  0)    0                0 (       0) /_    0.0

ELEMENT = "Load.S49B"
49        (102)    2                0 (       0) /_    0.0
49        (  0)    0                0 (       0) /_    0.0

ELEMENT = "Load.S49C"
49        (103)    3                0 (       0) /_    0.0
49        (  0)    0                0 (       0) /_    0.0

ELEMENT = "Load.S50C"
50        (106)    3                0 (       0) /_    0.0
50        (  0)    0                0 (       0) /_    0.0

ELEMENT = "Load.S51A"
51        (107)    1                0 (       0) /_    0.0
51        (  0)    0                0 (       0) /_    0.0

ELEMENT = "Load.S52A"
52        (113)    1           2.3838 (  0.9925) /_   -2.1
52        (  0)    0                0 (       0) /_    0.0

ELEMENT = "Load.S53A"
53        (116)    1           2.3772 (  0.9898) /_   -2.2
53        (  0)    0                0 (       0) /_    0.0

ELEMENT = "Load.S55A"
55        (122)    1            2.373 (   0.988) /_   -2.4
55        (  0)    0                0 (       0) /_    0.0

ELEMENT = "Load.S56B"
56        (129)    2           2.4542 (   1.022) /_ -121.1
56        (  0)    0                0 (       0) /_    0.0

ELEMENT = "Load.S58B"
58        (131)    2           2.4466 (   1.019) /_ -121.3
58        (  0)    0                0 (       0) /_    0.0

ELEMENT = "Load.S59B"
59        (135)    2           2.4458 (   1.018) /_ -121.4
59        (  0)    0                0 (       0) /_    0.0

ELEMENT = "Load.S60A"
60        (132)    1           2.3501 (  0.9785) /_   -3.3
60        (  0)    0                0 (       0) /_    0.0

ELEMENT = "Load.S62C"
62        (141)    3           2.3744 (  0.9886) /_  117.9
62        (  0)    0                0 (       0) /_    0.0

ELEMENT = "Load.S63A"
63        (142)    1           2.3468 (  0.9771) /_   -3.3
63        (  0)    0                0 (       0) /_    0.0

ELEMENT = "Load.S64B"
64        (146)    2           2.4271 (   1.011) /_ -121.7
64        (  0)    0                0 (       0) /_    0.0

ELEMENT = "Load.S65A"
65        (148)    1           2.3444 (  0.9761) /_   -3.3
65        (149)    2           2.4263 (    1.01) /_ -121.6

ELEMENT = "Load.S65B"
65        (149)    2           2.4263 (    1.01) /_ -121.6
65        (150)    3           2.3595 (  0.9824) /_  117.9

ELEMENT = "Load.S65C"
65        (150)    3           2.3595 (  0.9824) /_  117.9
65        (148)    1           2.3444 (  0.9761) /_   -3.3

ELEMENT = "Load.S66C"
66        (153)    3           2.3558 (  0.9809) /_  117.9
66        (  0)    0                0 (       0) /_    0.0

ELEMENT = "Load.S68A"
68        (155)    1           2.4888 (   1.036) /_   -3.6
68        (  0)    0                0 (       0) /_    0.0

ELEMENT = "Load.S69A"
69        (164)    1           2.4846 (   1.034) /_   -3.7
69        (  0)    0                0 (       0) /_    0.0

ELEMENT = "Load.S70A"
70        (165)    1           2.4816 (   1.033) /_   -3.7
70        (  0)    0                0 (       0) /_    0.0

ELEMENT = "Load.S71A"
71        (166)    1             2.48 (   1.033) /_   -3.7
71        (  0)    0                0 (       0) /_    0.0

ELEMENT = "Load.S73C"
73        (167)    3           2.4725 (   1.029) /_  117.6
73        (  0)    0                0 (       0) /_    0.0

ELEMENT = "Load.S74C"
74        (171)    3            2.468 (   1.028) /_  117.6
74        (  0)    0                0 (       0) /_    0.0

ELEMENT = "Load.S75C"
75        (172)    3           2.4656 (   1.027) /_  117.6
75        (  0)    0                0 (       0) /_    0.0

ELEMENT = "Load.S76A"
76        (168)    1           2.4932 (   1.038) /_   -3.8
76        (169)    2           2.5073 (   1.044) /_ -122.1

ELEMENT = "Load.S76B"
76        (169)    2           2.5073 (   1.044) /_ -122.1
76        (170)    3           2.4791 (   1.032) /_  117.6

ELEMENT = "Load.S76C"
76        (170)    3           2.4791 (   1.032) /_  117.6
76        (168)    1           2.4932 (   1.038) /_   -3.8

ELEMENT = "Load.S77B"
77        (174)    2           2.5102 (   1.045) /_ -122.2
77        (  0)    0                0 (       0) /_    0.0

ELEMENT = "Load.S79A"
79        (182)    1            2.496 (   1.039) /_   -3.9
79        (  0)    0                0 (       0) /_    0.0

ELEMENT = "Load.S80B"
80        (186)    2           2.5154 (   1.047) /_ -122.3
80        (  0)    0                0 (       0) /_    0.0

ELEMENT = "Load.S82A"
82        (191)    1           2.5057 (   1.043) /_   -4.0
82        (  0)    0                0 (       0) /_    0.0

ELEMENT = "Load.S83C"
83        (197)    3           2.4879 (   1.036) /_  117.3
83        (  0)    0                0 (       0) /_    0.0

ELEMENT = "Load.S84C"
84        (194)    3           2.4779 (   1.032) /_  117.3
84        (  0)    0                0 (       0) /_    0.0

ELEMENT = "Load.S85C"
85        (198)    3           2.4749 (    1.03) /_  117.3
85        (  0)    0                0 (       0) /_    0.0

ELEMENT = "Load.S86B"
86        (177)    2           2.5031 (   1.042) /_ -122.3
86        (  0)    0                0 (       0) /_    0.0

ELEMENT = "Load.S87B"
87        (200)    2           2.5013 (   1.041) /_ -122.4
87        (  0)    0                0 (       0) /_    0.0

ELEMENT = "Load.S88A"
88        (202)    1           2.4898 (   1.037) /_   -3.8
88        (  0)    0                0 (       0) /_    0.0

ELEMENT = "Load.S90B"
90        (206)    2           2.5005 (   1.041) /_ -122.4
90        (  0)    0                0 (       0) /_    0.0

ELEMENT = "Load.S92C"
92        (210)    3            2.485 (   1.035) /_  117.5
92        (  0)    0                0 (       0) /_    0.0

ELEMENT = "Load.S94A"
94        (214)    1            2.486 (   1.035) /_   -3.8
94        (  0)    0                0 (       0) /_    0.0

ELEMENT = "Load.S95B"
95        (216)    2           2.4986 (    1.04) /_ -122.4
95        (  0)    0                0 (       0) /_    0.0

ELEMENT = "Load.S96B"
96        (218)    2            2.498 (    1.04) /_ -122.4
96        (  0)    0                0 (       0) /_    0.0

ELEMENT = "Load.S98A"
98        (219)    1           2.4896 (   1.037) /_   -3.7
98        (  0)    0                0 (       0) /_    0.0

ELEMENT = "Load.S99B"
99        (223)    2           2.5067 (   1.044) /_ -121.9
99        (  0)    0                0 (       0) /_    0.0

ELEMENT = "Load.S100C"
100       (227)    3           2.4741 (    1.03) /_  117.7
100       (  0)    0                0 (       0) /_    0.0

ELEMENT = "Load.S102C"
102       (237)    3           2.4716 (   1.029) /_  117.7
102       (  0)    0                0 (       0) /_    0.0

ELEMENT = "Load.S103C"
103       (241)    3           2.4676 (   1.027) /_  117.7
103       (  0)    0                0 (       0) /_    0.0

ELEMENT = "Load.S104C"
104       (242)    3           2.4633 (   1.026) /_  117.7
104       (  0)    0                0 (       0) /_    0.0

ELEMENT = "Load.S106B"
106       (243)    2           2.5056 (   1.043) /_ -122.0
106       (  0)    0                0 (       0) /_    0.0

ELEMENT = "Load.S107B"
107       (247)    2           2.5021 (   1.042) /_ -122.0
107       (  0)    0                0 (       0) /_    0.0

ELEMENT = "Load.S109A"
109       (248)    1           2.4715 (   1.029) /_   -3.9
109       (  0)    0                0 (       0) /_    0.0

ELEMENT = "Load.S111A"
111       (253)    1            2.465 (   1.026) /_   -3.9
111       (  0)    0                0 (       0) /_    0.0

ELEMENT = "Load.S112A"
112       (254)    1           2.4652 (   1.026) /_   -3.9
112       (  0)    0                0 (       0) /_    0.0

ELEMENT = "Load.S113A"
113       (255)    1           2.4602 (   1.024) /_   -4.0
113       (  0)    0                0 (       0) /_    0.0

ELEMENT = "Load.S114A"
114       (256)    1           2.4592 (   1.024) /_   -4.0
114       (  0)    0                0 (       0) /_    0.0

